60
C60
C                 -2.64388491   -1.22302156    0.00000000
C                 -1.17999591   -1.22302156    0.00000000
C                 -0.48770691   -0.02382356    0.00000000
C                 -1.21968891    1.24393444   -0.00001900
C                 -2.60435691    1.24390244    0.00000500
C                 -3.33626291   -0.02389256    0.00002100
C                 -3.09626491   -2.32940656   -0.84514300
C                 -1.91197891   -3.01315856   -1.36751300
C                 -0.72761891   -2.32936656   -0.84518700
C                  0.39255209   -2.17666556   -1.64467700
C                  0.69654809    0.13759944   -0.84525000
C                 -0.48780291    2.18885844   -0.84526500
C                 -1.18020591    3.08263644   -1.64470200
C                 -2.64409891    3.08261344   -1.64464800
C                 -3.33636491    2.18880944   -0.84515400
C                 -4.52068691    1.50500244   -1.36745400
C                 -4.52062491    0.13748544   -0.84510200
C                 -4.94853091   -0.90901456   -1.64450700
C                 -4.21653391   -2.17677356   -1.64452900
C                 -1.91203091   -3.50726356   -2.66101900
C                 -3.09635691   -3.34589556   -3.50614400
C                 -4.21657091   -2.69913756   -3.01203600
C                 -4.94858491   -1.75422956   -3.85720300
C                 -5.40095491   -0.64787756   -3.01201000
C                 -5.40100691    0.64564044   -3.50610800
C                 -4.94864091    1.75201544   -2.66095700
C                 -4.21675591    2.69697844   -3.50619100
C                 -3.09652891    3.34378144   -3.01217300
C                  0.69648709    1.50513344   -1.36763700
C                 -0.72794891    2.32731844   -5.67325800
C                  0.39232109    2.17469644   -4.87388600
C                  1.12429409    0.90694544   -4.87388000
C                  0.69639209   -0.13954956   -5.67330600
C                 -0.48793791    0.02182944   -6.51843700
C                 -2.64422091    1.22093444   -6.51837200
C                 -3.09658991    2.32729344   -5.67318700
C                 -1.91228091    3.01109444   -5.15088600
C                 -1.91224391    3.50519244   -3.85737800
C                 -0.72788491    3.34379744   -3.01221300
C                  0.39234109    2.69706044   -3.50632700
C                  1.57668909    0.64579544   -3.50637300
C                  1.57674609   -0.64769456   -3.01226300
C                  1.12435309   -1.75409556   -3.85740200
C                  0.69642509   -1.50707456   -5.15092200
C                 -0.48785891   -2.19087056   -5.67323000
C                 -1.21986091   -1.24597056   -6.51838300
C                 -2.60453091   -1.24598656   -6.51832700
C                 -3.33651791    0.02176344   -6.51833200
C                 -4.21679091    2.17460044   -4.87370400
C                 -4.94868991    0.90680744   -4.87365800
C                 -4.52080491   -0.13966856   -5.67310300
C                 -4.52074991   -1.50719656   -5.15073900
C                 -3.33642291   -2.19093956   -5.67312600
C                 -2.64403491   -3.08471856   -4.87371500
C                 -1.18014191   -3.08469256   -4.87374700
C                 -0.72772691   -3.34582456   -3.50626500
C                  0.39249409   -2.69902556   -3.01222400
C                  1.12431609    1.75217744   -2.66118400
C                  1.12443109   -0.90886456   -1.64469900
C                 -1.18031291    1.22097244   -6.51840400
