36
C24H12
C                 -5.13087832   -3.00801965   -0.00051400
C                 -3.70561632   -3.00801965   -0.00051400
C                 -3.02303832   -1.77576865   -0.00051400
C                 -3.75946532   -0.55098765   -0.00033800
C                 -5.16791332   -0.57599965   -0.00045100
C                 -5.83629332   -1.83482465   -0.00051100
C                 -1.59414632   -1.75039465   -0.00046600
C                 -3.06698832    0.69915435    0.00003000
C                 -1.63809132    0.72453935    0.00042400
C                 -0.90167032   -0.50023965    0.00013400
C                 -0.95554132    1.95679535    0.00116500
C                 -1.71154032    3.16503435    0.00131800
C                 -3.08026732    3.14072535    0.00077700
C                 -3.79288132    1.90640135    0.00024100
C                 -5.21724432    1.85581835   -0.00006900
C                 -5.88055832    0.65830535   -0.00037500
H                 -6.98083932    0.62587935   -0.00052600
H                 -5.77338132    2.80575535    0.00000000
H                 -5.65294532   -3.97710065   -0.00052000
H                 -6.93702932   -1.84147865   -0.00050900
H                 -1.16693232    4.12163035    0.00183000
H                 -3.65850432    4.07737335    0.00079600
C                 -2.94963532   -4.21626665   -0.00069700
C                 -1.58088932   -4.19195565   -0.00103700
C                 -0.86826632   -2.95763265   -0.00089200
H                 -3.49421632   -5.17288265   -0.00061200
H                 -1.00266432   -5.12861365   -0.00127600
C                  0.55609968   -2.90704665   -0.00085900
C                  1.21941468   -1.70953465   -0.00001500
C                  0.50676668   -0.47523665    0.00054200
H                  1.11223168   -3.85697765   -0.00135600
H                  2.31969468   -1.67710465    0.00023500
C                  0.46972068    1.95680035    0.00195800
H                  0.99178468    2.92590135    0.00296500
C                  1.17514368    0.78360035    0.00155000
H                  2.27588368    0.79028335    0.00199700
